46
CUP08012.xyz 0.0000000
C 0.4060 1.3390 -0.7760
H 0.9090 2.3040 -0.7740
C -0.8660 1.1900 -0.1950
C -1.5010 2.3740 0.4190
O -2.7050 2.5790 0.4350
O -0.5480 3.1720 0.9700
C -1.0580 4.3310 1.6320
H -1.7170 4.0410 2.4560
H -1.5840 4.9760 0.9220
H -0.2100 4.8860 2.0440
C -1.5070 -0.0670 -0.2300
C -2.8630 -0.3400 0.3730
H -3.3220 -1.2210 -0.0890
H -3.5590 0.4870 0.2400
C -0.8320 -1.1490 -0.8300
H -1.2910 -2.1370 -0.8540
C 0.4320 -0.9880 -1.3960
H 0.9330 -1.8380 -1.8530
C 1.0510 0.2560 -1.3730
H 2.0350 0.3840 -1.8160
S -2.6660 -0.6870 2.1240
N -4.2510 -0.5290 2.6620
H -4.4070 0.3110 3.2140
C -5.3220 -1.3570 2.2730
O -5.1570 -2.2810 1.4950
N -6.4950 -0.9510 2.8320
H -6.5190 -0.1560 3.4480
C -7.7470 -1.5280 2.6470
O -2.2350 -2.0580 2.2990
O -1.9390 0.4000 2.7520
N -8.7260 -0.8890 3.2970
C -9.9730 -1.3810 3.1790
O -10.8920 -0.6480 3.8760
C -12.2520 -1.0550 3.8070
H -12.3870 -2.0550 4.2340
H -12.6270 -1.0100 2.7790
H -12.8420 -0.3560 4.4070
C -10.2570 -2.5040 2.4330
H -11.2590 -2.8930 2.3440
C -9.1840 -3.1000 1.8030
O -9.2660 -4.2220 1.0220
C -10.5090 -4.9120 0.9820
H -11.2800 -4.3050 0.4970
H -10.8230 -5.2250 1.9840
H -10.3700 -5.8160 0.3800
N -7.9300 -2.6180 1.8960
