24
cup0814a.xyz 0.0000000
C 0.00000 0.00000 0.00000
C 1.53408 0.00000 0.00000
C 2.05973 1.40826 0.00000
C 1.49639 2.33132 0.79080
C 0.34061 1.95560 1.67538
C -0.65097 1.06667 0.91383
C -1.47940 1.87224 -0.07541
O -2.16063 2.82703 0.21125
N -1.37015 1.36609 -1.50449
S -2.15391 2.03450 -2.84301
C -0.55973 0.36535 -1.36640
O -0.30449 -0.21433 -2.39435
H -0.38457 -1.02206 0.23600
H 1.92333 -0.51443 0.90973
H 1.91950 -0.55826 -0.88526
H 2.92224 1.66132 -0.64009
H 1.88277 3.36457 0.81911
H -0.17322 2.87084 2.05249
H 0.74574 1.41516 2.56283
H -1.37462 0.60022 1.62583
C -3.75015 1.14794 -2.77989
Cl -4.68855 1.56685 -1.31795
Cl -3.54838 -0.62524 -2.84990
Cl -4.72332 1.64387 -4.21188
