31
CUP08016.xyz 0.0000000
C 0.8380 0.7900 -0.1200
C -0.3650 1.2690 -0.6050
O -0.5670 2.6330 -0.8720
C -1.3920 0.3750 -0.8990
H -2.3330 0.7340 -1.3060
C -1.2040 -0.9960 -0.6640
H -2.0080 -1.6950 -0.8850
C 0.0070 -1.4720 -0.1460
H 0.1450 -2.5320 0.0430
C 1.0190 -0.5610 0.1130
C 2.3650 -0.7950 0.6850
H 2.2750 -1.0580 1.7440
H 2.9150 -1.5830 0.1620
C 2.9910 0.6050 0.4820
C 3.6990 1.0840 1.7510
H 4.1080 2.0910 1.6140
H 4.5160 0.4110 2.0340
H 2.9950 1.1490 2.5890
C 3.9680 0.6220 -0.7000
H 3.4690 0.3220 -1.6290
H 4.8150 -0.0500 -0.5310
H 4.3540 1.6340 -0.8710
O 1.9270 1.5560 0.1910
C -0.5080 3.6270 0.1190
O -0.4410 4.8130 -0.1930
N -0.5850 3.1840 1.4230
H -0.6720 2.1960 1.6110
C -0.5420 4.1030 2.5300
H -1.4150 4.7590 2.4850
H 0.3690 4.7040 2.4680
H -0.5510 3.5320 3.4610
