34
CUP08019.xyz 0.0000000
C 1.8720 0.6060 -1.4850
Cl 3.2710 1.1950 -2.2980
C 0.6070 1.0290 -1.8900
H 0.4960 1.7270 -2.7160
C -0.5280 0.5550 -1.2270
H -1.5100 0.8960 -1.5510
C -0.4090 -0.3430 -0.1520
C -1.6430 -0.7870 0.5150
O -2.3040 -1.7730 -0.1900
P -3.7680 -2.4010 0.0690
O -3.7100 -2.9810 1.5770
C -3.2570 -4.3090 1.7860
H -3.6240 -4.9690 0.9940
H -3.6890 -4.6560 2.7290
C -1.7460 -4.3530 1.8720
H -1.3830 -3.6570 2.6340
H -1.2930 -4.0590 0.9200
H -1.4010 -5.3610 2.1200
O -4.7220 -1.1030 0.2140
C -6.1070 -1.3340 0.4120
H -6.2500 -1.9870 1.2790
H -6.5210 -1.8240 -0.4740
C -6.7910 -0.0030 0.6430
H -6.6390 0.6630 -0.2130
H -6.3670 0.5020 1.5180
H -7.8650 -0.1370 0.7990
C -2.0780 -0.2520 1.6640
Cl -1.3000 1.0060 2.5370
H -2.9860 -0.5530 2.1680
C 0.8750 -0.7640 0.2370
Cl 1.1170 -1.8810 1.5350
C 2.0110 -0.2900 -0.4280
H 3.0020 -0.6180 -0.1200
O -4.2250 -3.3840 -0.9680
