42
CUP08020.xyz 0.0000000
C 1.6520 0.1700 -0.4130
Cl 2.9750 1.2370 -0.1750
N 0.4510 0.7140 -0.1600
C -0.6040 -0.0920 -0.3330
N -1.8240 0.5020 -0.0410
H -1.7470 1.4610 0.2590
N -0.5220 -1.3650 -0.7340
C 0.7090 -1.8510 -0.9720
O 0.8680 -3.1590 -1.3870
C -0.3640 -3.8580 -1.5450
H -0.9900 -3.3890 -2.3110
H -0.9000 -3.9360 -0.5920
H -0.1310 -4.8730 -1.8810
C 1.8570 -1.1190 -0.8250
H 2.8360 -1.5310 -1.0210
C -3.0480 -0.0940 -0.1220
N -4.0600 0.7850 0.3100
H -3.7400 1.5770 0.8920
O -3.2910 -1.2310 -0.4940
S -5.5950 0.2500 0.7510
C -6.4870 1.7700 1.0330
O -6.2160 -0.3990 -0.3850
O -5.5100 -0.3960 2.0440
C -6.1030 2.6830 2.0240
C -6.8970 3.8100 2.2780
H -6.6020 4.5380 3.0310
C -8.0700 4.0190 1.5510
H -8.6840 4.8940 1.7500
C -8.4520 3.1110 0.5650
H -9.3680 3.2750 0.0030
C -7.6660 1.9860 0.3060
H -7.9970 1.2820 -0.4550
C -4.8360 2.5640 2.7430
O -5.0450 2.6710 4.0740
C -3.8640 2.5290 4.8740
H -3.1470 3.3160 4.6150
H -3.4130 1.5460 4.6940
C -4.2610 2.6540 6.3320
H -4.9940 1.8860 6.5990
H -4.7330 3.6240 6.5210
H -3.3890 2.5530 6.9840
O -3.7750 2.3840 2.1590
