29
CUP08028.xyz 0.0000000
C 0.9730 0.5570 -0.9820
C 2.2150 1.1690 -1.6300
C 1.9800 1.3260 -3.1360
H 1.8920 0.3520 -3.6310
H 2.7990 1.8730 -3.6120
H 1.0570 1.8820 -3.3350
H 2.3700 2.1680 -1.2050
C 3.5100 0.3810 -1.3210
H 3.5240 -0.5740 -1.8600
H 3.5450 0.1420 -0.2510
C 4.7780 1.1490 -1.6740
H 4.8070 2.1170 -1.1640
H 4.8580 1.3210 -2.7510
H 5.6590 0.5780 -1.3640
C -0.0110 1.3440 -0.3550
O 0.0700 2.7070 -0.3110
H 0.5850 3.0350 -1.0660
C -1.1080 0.7290 0.2610
C -1.2900 -0.6550 0.2630
H -2.1550 -1.0980 0.7510
C -0.3370 -1.4360 -0.3910
C 0.7770 -0.8430 -1.0120
H 1.5040 -1.4730 -1.5230
N -2.1110 1.5420 0.9110
O -2.1640 1.4780 2.1470
O -2.8710 2.1940 0.1830
N -0.4990 -2.8930 -0.4320
O -1.5130 -3.3730 0.0940
O 0.3860 -3.5570 -0.9890
