25
CUP08029.xyz 0.0000000
C 1.4670 1.0640 0.5350
H 2.2380 1.2990 -0.2130
C 0.0600 1.0210 -0.1610
Cl -0.2840 2.4150 -1.1670
C -0.9630 0.6930 0.9100
Cl -2.0640 1.8020 1.5600
C -0.7820 -0.5870 1.2570
Cl -1.5990 -1.4690 2.4470
C 0.3640 -1.1240 0.4210
Cl 0.4650 -2.8680 0.2670
C 1.6820 -0.4500 0.9460
H 2.5380 -0.8160 0.3610
C 0.0910 -0.3510 -0.9090
Cl -1.4570 -0.7930 -1.7290
Cl 1.3790 -0.5040 -2.1490
C 2.0170 -0.7270 2.4150
H 1.2490 -0.3680 3.1090
H 2.0960 -1.8080 2.5730
O 3.2970 -0.1820 2.7230
S 3.2870 1.2740 3.4100
O 2.9670 2.1430 2.0930
C 1.6150 2.1100 1.6450
H 1.3990 3.1040 1.2400
H 0.9190 1.9570 2.4780
O 4.6980 1.5830 3.8100
