27
CUP08030.xyz 0.0000000
Cl -4.3920 -2.7680 -3.7110
C -5.2050 -1.2080 -3.5300
Cl -6.8790 -1.6120 -4.2040
C -4.5600 0.0560 -4.1770
Cl -4.1970 -0.0450 -5.8810
C -3.3630 0.5270 -3.2790
H -3.3080 1.6260 -3.3490
C -1.8940 0.0110 -3.3030
H -1.4400 -0.0800 -4.2900
C -1.1340 0.9780 -2.3680
H -1.0630 2.0140 -2.6560
C -1.5930 0.5800 -0.9890
H -1.8630 1.3210 -0.2540
C -2.5770 -0.5820 -1.2480
H -2.7430 -1.2110 -0.3720
C -1.8950 -1.2570 -2.4420
H -0.8840 -1.6150 -2.2090
H -2.3900 -2.1100 -2.8530
O -0.2330 0.4270 -1.4030
C -3.8440 0.1090 -1.8330
H -4.0160 1.0110 -1.2240
C -5.2430 -0.5380 -2.1230
Cl -5.8800 -1.5090 -0.8200
C -6.0690 0.6860 -2.5350
Cl -7.2020 1.4580 -1.5440
C -5.6600 1.0420 -3.7650
Cl -6.1550 2.3690 -4.6920
