41
CUP08031.xyz 0.0000000
C -1.8050 -0.5680 0.2850
S -1.1760 -2.2500 0.4940
H -2.5900 -0.5700 -0.4740
H -0.9930 0.0820 -0.0510
S -2.4780 0.0750 1.8350
P -3.0770 2.0540 1.3450
S -4.3800 2.2210 -0.1070
O -3.5740 2.7930 2.7140
C -3.9680 4.1590 2.6850
H -5.0200 4.2180 2.3910
H -3.3650 4.7200 1.9640
C -3.7850 4.7400 4.0720
H -2.7380 4.6680 4.3850
H -4.3750 4.1810 4.8060
H -4.0900 5.7900 4.0990
O -1.7440 2.9360 1.0140
C -0.6670 2.9590 1.9390
H -0.0200 2.0980 1.7470
H -1.0360 2.8990 2.9680
C 0.1090 4.2450 1.7430
H -0.5360 5.1130 1.9140
H 0.4780 4.3200 0.7150
H 0.9600 4.2970 2.4280
P -0.2900 -2.7090 -1.3840
O 1.0860 -1.8580 -1.5880
C 1.9820 -1.5720 -0.5260
C 2.8060 -2.7760 -0.1200
H 3.2950 -3.2240 -0.9900
H 2.1800 -3.5450 0.3390
H 3.5730 -2.4890 0.6050
H 1.4470 -1.1540 0.3300
H 2.6560 -0.7870 -0.8860
O 0.3150 -4.2240 -1.3010
C 0.9750 -4.7950 -2.4230
H 1.6710 -4.0730 -2.8610
H 0.2320 -5.0750 -3.1750
C 1.7240 -6.0300 -1.9660
H 1.0360 -6.7550 -1.5180
H 2.4600 -5.7750 -1.1970
H 2.2410 -6.5060 -2.8040
S -1.4570 -2.4650 -2.9400
