24
CUP08034.xyz 0.0000000
C 1.2850 0.5310 -0.5780
C 1.2790 -0.1630 -1.9580
H 1.2610 0.5760 -2.7680
H 2.1780 -0.7760 -2.0920
H 0.4120 -0.8170 -2.0930
C 2.5340 1.4270 -0.5010
H 3.4510 0.8390 -0.6230
H 2.5210 2.1920 -1.2860
H 2.5960 1.9410 0.4640
C 0.0220 1.4070 -0.4080
H 0.1590 2.1120 0.4230
H -0.1160 2.0140 -1.3130
C -1.2360 0.6180 -0.1340
C -2.5290 1.3270 -0.4210
H -2.5920 1.5870 -1.4820
H -2.5940 2.2480 0.1680
H -3.4010 0.7120 -0.1750
C -1.2180 -0.6330 0.3460
H -2.1210 -1.2020 0.5370
C 0.0560 -1.3030 0.6780
O 0.0380 -2.4520 1.1090
C 1.3440 -0.5190 0.5450
H 2.1590 -1.2290 0.3550
H 1.5340 -0.0440 1.5150
