42
CUP08040.xyz 0.0000000
C 1.0250 0.8690 0.5270
N 2.1810 1.5620 0.2030
C 3.3400 0.8180 -0.3060
C 4.6250 1.1340 0.4600
H 4.4800 0.9890 1.5350
H 4.9040 2.1840 0.3200
C 5.7780 0.2580 -0.0070
H 5.9740 0.4050 -1.0740
H 5.5590 -0.8010 0.1610
H 6.6900 0.5070 0.5430
H 3.4750 1.0680 -1.3660
H 3.1500 -0.2630 -0.2710
C 2.2070 3.0290 0.2640
H 1.3000 3.4530 -0.1800
H 3.0360 3.4080 -0.3460
C 2.3490 3.5360 1.6980
H 3.2290 3.0910 2.1760
H 1.4760 3.2390 2.2900
C 2.4760 5.0510 1.7410
H 1.5960 5.5310 1.3020
H 3.3610 5.3870 1.1920
H 2.5680 5.3940 2.7770
C -0.1100 0.8640 -0.3110
C -1.3060 0.1940 -0.0020
H -2.1560 0.2350 -0.6820
C -1.3780 -0.5320 1.1840
S -2.8850 -1.3610 1.6180
C -2.6750 -2.9850 0.9360
H -1.8040 -3.4550 1.3950
H -2.5490 -2.9040 -0.1460
H -3.5720 -3.5660 1.1620
C -0.2910 -0.5800 2.0530
H -0.3490 -1.1380 2.9870
C 0.8840 0.1090 1.7040
N -0.0590 1.5230 -1.5990
O -0.7560 2.5380 -1.7350
O 0.6370 0.9970 -2.4780
N 1.9810 0.0020 2.6370
O 2.0160 0.8200 3.5650
O 2.7620 -0.9440 2.4700
O -3.9590 -0.7020 0.9010
O -2.9110 -1.4740 3.0630
