27
CUP08042.xyz 0.0000000
N 0.0420 1.2980 0.4520
C -0.0480 2.7180 0.2380
H -0.0430 2.9220 -0.8360
H -0.9800 3.0900 0.6730
H 0.8070 3.2010 0.7160
H 0.8170 0.9100 0.9730
C -0.9030 0.4270 -0.0340
O -0.5640 -0.8560 0.3140
N -1.5140 -1.7670 -0.1840
C -1.2210 -2.9760 0.1620
S 0.0960 -3.6200 1.0840
C 1.3660 -3.5930 -0.2000
H 1.5370 -2.5720 -0.5520
H 1.0720 -4.2200 -1.0460
H 2.3020 -3.9810 0.2100
O -1.8900 0.7680 -0.6770
C -2.0670 -4.1590 -0.2130
O -1.7170 -4.8050 -1.1970
N -3.1990 -4.4180 0.5630
C -3.6190 -3.6230 1.7100
H -3.6720 -4.2760 2.5860
H -4.6110 -3.2120 1.5040
H -2.9370 -2.8010 1.9290
C -4.0430 -5.5520 0.2230
H -4.0840 -6.2300 1.0810
H -3.6630 -6.1010 -0.6420
H -5.0490 -5.1870 -0.0020
