40
CUP08046.xyz 0.0000000
C 0.6340 0.8570 -0.4910
N 1.9190 1.3570 -0.3570
C 2.1770 2.7650 -0.6850
H 2.5770 3.2750 0.2000
H 1.2510 3.2840 -0.9620
C 3.1170 2.8830 -1.8500
H 2.7880 2.2990 -2.7010
C 3.0450 0.5150 0.0770
H 3.8880 1.1570 0.3590
H 3.3980 -0.0970 -0.7600
C 2.7090 -0.3670 1.2810
H 1.8850 -1.0500 1.0460
H 2.3830 0.2560 2.1200
C 3.9120 -1.1910 1.7150
H 4.7480 -0.5450 2.0010
H 4.2460 -1.8510 0.9090
H 3.6530 -1.8120 2.5780
C -0.4290 1.2630 0.3400
C -1.7410 0.7610 0.2400
H -2.5150 1.1080 0.9260
C -2.0490 -0.1950 -0.7330
C -3.4400 -0.7680 -0.8400
F -3.6020 -1.8710 -0.0610
F -3.7630 -1.1480 -2.1060
F -4.4070 0.1100 -0.4560
C -1.0260 -0.6370 -1.5780
H -1.2390 -1.3870 -2.3420
C 0.2740 -0.1100 -1.4470
N -0.1900 2.2020 1.4140
O -0.3540 3.4020 1.1570
O 0.1070 1.7290 2.5180
N 1.2510 -0.5950 -2.3950
O 1.7570 -1.7000 -2.1570
O 1.4640 0.1040 -3.3930
C 4.5990 3.0790 -1.6510
H 4.9930 3.1610 -0.6440
H 5.2720 2.5930 -2.3490
C 3.7570 4.2130 -2.1600
H 3.8660 4.4940 -3.2020
H 3.5820 5.0500 -1.4940
