22
CUP08048.xyz 0.0000000
C 0.3940 1.2020 -0.1540
H 1.1660 1.9640 -0.1900
C -0.9070 1.5790 -0.5060
H -1.0990 2.6090 -0.7990
C -1.9440 0.6450 -0.4800
Cl -3.5250 1.1760 -0.9260
C -1.6730 -0.6720 -0.1000
Cl -2.9010 -1.8870 -0.0420
C -0.3700 -1.0460 0.2520
H -0.1770 -2.0750 0.5460
C 0.6750 -0.1110 0.2280
N 1.9590 -0.5690 0.5960
H 2.0260 -1.5480 0.8530
C 3.1350 0.1690 0.6460
C 4.3050 -0.6940 1.0930
H 4.4080 -1.5300 0.3920
H 4.0750 -1.1060 2.0820
C 5.6110 0.0770 1.1570
H 5.5410 0.9110 1.8640
H 5.8740 0.4890 0.1770
H 6.4260 -0.5780 1.4820
O 3.2650 1.3580 0.3760
