25
CUP08050.xyz 0.0000000
C 1.1220 0.4910 0.0000
N 2.2850 1.2210 0.0000
C 3.5820 0.5910 0.0000
H 3.6980 -0.0420 -0.8880
H 3.6980 -0.0420 0.8870
C 4.6720 1.6500 -0.0010
H 4.5970 2.2910 0.8840
H 4.5960 2.2910 -0.8860
H 5.6600 1.1800 -0.0010
H 2.1730 2.2240 0.0000
N -0.0100 1.1960 0.0000
C -1.1540 0.5090 0.0000
N -2.3050 1.2570 0.0000
C -3.6120 0.6480 -0.0010
H -3.7390 0.0160 0.8860
H -3.7380 0.0180 -0.8890
C -4.6850 1.7240 0.0000
H -4.5990 2.3650 -0.8840
H -4.6000 2.3630 0.8860
H -5.6810 1.2710 -0.0010
H -2.1770 2.2590 0.0010
N -1.2180 -0.8160 -0.0010
C -0.0310 -1.4070 -0.0010
Cl -0.0450 -3.1170 -0.0020
N 1.1650 -0.8350 -0.0010
