41
CUP08051.xyz 0.0000000
C 1.4580 0.1460 0.8640
S 2.7260 0.9710 1.8130
N 2.8210 2.4830 1.0770
H 2.8760 2.4070 0.0460
C 0.3260 -0.3240 1.5440
H 0.1900 -0.1380 2.6080
C -0.6430 -1.0630 0.8630
H -1.5190 -1.4310 1.3940
C -0.4870 -1.3390 -0.4940
H -1.2440 -1.9130 -1.0220
C 0.6380 -0.8720 -1.1760
H 0.7360 -1.0800 -2.2400
C 1.6170 -0.1310 -0.5000
C 3.5050 3.5730 1.6540
O 3.8500 3.5720 2.8240
N 3.7100 4.5610 0.7370
H 3.3610 4.4650 -0.2020
C 4.3840 5.7570 0.9570
N 4.9230 6.0510 2.1480
C 5.5640 7.2320 2.2630
C 6.1660 7.5610 3.5950
H 5.9860 6.7550 4.3140
H 5.7230 8.4780 3.9950
H 7.2480 7.6950 3.4990
C 5.6740 8.1170 1.2090
H 6.1910 9.0630 1.3120
C 5.0880 7.7340 0.0190
C 5.1560 8.6330 -1.1780
H 4.6450 8.1810 -2.0350
H 6.1980 8.8120 -1.4590
H 4.6720 9.5900 -0.9600
N 4.4410 6.5580 -0.1220
O 2.2110 1.1200 3.1580
O 3.9510 0.2480 1.5450
C 2.7300 0.4110 -1.2800
O 3.0540 1.5910 -1.2170
O 3.2960 -0.5670 -2.0220
C 4.4240 -0.1440 -2.7910
H 5.2120 0.2380 -2.1350
H 4.1240 0.6160 -3.5200
H 4.8110 -1.0120 -3.3320
