39
CUP08056.xyz 0.0000000
C 1.2960 0.5040 -0.3180
N 2.4480 1.2650 -0.2050
C 2.4060 2.7130 0.0550
H 2.0650 3.2500 -0.8360
H 3.4240 3.0770 0.2470
C 1.5410 3.0740 1.2630
H 1.9250 2.5710 2.1580
H 0.5090 2.7340 1.1180
C 1.5300 4.5750 1.5080
H 1.1220 5.1100 0.6440
H 2.5410 4.9500 1.6990
H 0.9100 4.8120 2.3790
C 3.7590 0.6220 -0.3750
H 3.6710 -0.4700 -0.3950
H 4.3930 0.8730 0.4840
C 4.4310 1.0700 -1.6750
H 4.5250 2.1610 -1.7080
H 3.8150 0.7780 -2.5320
C 5.8120 0.4510 -1.8270
H 5.7540 -0.6420 -1.8410
H 6.4690 0.7500 -1.0030
H 6.2730 0.7780 -2.7640
C 0.3420 0.6810 -1.3370
C -0.8340 -0.0870 -1.4530
H -1.5330 0.1000 -2.2700
C -1.1050 -1.1000 -0.5280
C -2.3690 -1.9170 -0.6240
F -2.2300 -3.1710 -0.1150
F -2.7990 -2.0780 -1.9050
F -3.4010 -1.3460 0.0540
C -0.1940 -1.3090 0.5130
H -0.3910 -2.0770 1.2610
C 0.9690 -0.5180 0.5970
N 0.5510 1.6660 -2.3730
O -0.0920 2.7200 -2.2760
O 1.3080 1.3590 -3.3030
N 1.8160 -0.7650 1.7450
O 2.6050 -1.7160 1.6620
O 1.6440 -0.0480 2.7380
