28
CUP08058.xyz 0.0000000
C 0.00000 0.00000 0.00000
C 1.41174 0.00000 0.00000
C 2.08882 1.23615 0.00000
C 1.37146 2.43375 0.00000
C -0.04075 2.44329 0.00000
C -0.71136 1.19837 0.00000
N 2.20715 -1.34446 0.00000
O 1.60501 -2.44457 -0.00665
O 3.40441 -1.34572 0.00738
N -0.73120 3.74355 0.00000
N -2.08037 3.92341 0.00038
C -2.77127 5.22544 0.00038
C -4.18564 5.23244 0.00081
C -2.09928 6.46883 -0.00043
C -2.80854 7.66938 -0.00039
C -4.22095 7.66197 0.00048
C -4.90458 6.42606 0.00130
N -4.93387 8.86349 0.00052
H -0.54329 -0.95922 0.00047
H 3.19085 1.25835 0.00000
H 1.93649 3.38090 0.00000
H -1.80968 1.13129 0.00000
H -4.74759 4.28316 0.00114
H -1.00058 6.53299 -0.00112
H -2.26262 8.62778 -0.00103
H -6.00719 6.40259 0.00198
H -4.46440 9.70038 -0.00003
H -5.89338 8.85243 0.00111
