32
CUP08060.xyz 0.0000000
C 0.00000 0.00000 0.00000
C 1.34503 0.00000 0.00000
C 2.08392 1.29332 0.00000
C 1.40579 2.46213 0.00000
C -0.04895 2.47092 0.00000
C -0.73964 1.29172 0.00000
N -2.13659 1.34387 0.00000
C -0.74869 -1.28470 0.00000
C 2.08704 -1.28943 0.00000
N 3.44901 1.33696 0.00000
C -0.04831 -2.58591 0.00000
C 1.37723 -2.58787 0.00000
C 2.07442 -3.82896 0.00000
C -0.74644 -3.81348 0.00000
C -0.04093 -5.02141 0.00000
N -2.11099 -3.86683 0.00000
C 1.35798 -5.02990 0.00000
N 3.43848 -3.89100 0.00000
H -0.58614 -5.97998 0.00000
H 1.89341 -5.99396 0.00000
H -0.58185 3.43621 0.00000
H 1.94613 3.42351 0.00000
H -2.64805 0.53103 0.00000
H -2.58624 2.19101 0.00000
O -1.96024 -1.25782 0.00000
O 3.29723 -1.28173 0.00000
H 3.96554 0.52667 0.00000
H 3.91734 2.17451 0.00000
H -2.57392 -4.70736 0.00000
H -2.63399 -3.06046 0.00000
H 3.89669 -4.73405 0.00000
H 3.96600 -3.08732 0.00000
