35
CUP08063.xyz 0.0000000
C 0.00000 0.00000 0.00000
C 1.41851 0.00000 0.00000
C 2.09415 1.23284 0.00000
N 1.32017 2.38954 -0.01050
C -0.06074 2.49330 -0.01056
N -0.63715 1.21899 -0.00629
C -0.80969 -1.26622 0.01621
C 2.18767 -1.29583 -0.01023
O 3.45315 1.31074 0.00174
N -0.76736 3.69643 -0.02267
C 4.09874 2.52054 0.23418
O 4.60518 2.69730 1.34342
N 4.19190 3.49785 -0.72525
C 4.72364 4.81123 -0.36002
C -2.21752 3.66845 -0.19371
C -0.03460 4.94761 -0.20242
C 3.54168 3.33303 -2.02505
H -0.43242 -1.97954 0.78333
H -0.78051 -1.75601 -0.98336
H -1.87497 -1.05143 0.25986
H 3.26114 -1.15551 -0.26862
H 2.14115 -1.77508 0.99385
H 1.77172 -2.00201 -0.76383
H 5.67688 4.71209 0.20773
H 3.97512 5.35830 0.25776
H 4.94183 5.42010 -1.26621
H -2.67378 2.85685 0.41755
H -2.67309 4.62875 0.13766
H -2.46399 3.50553 -1.26764
H 0.90663 4.94830 0.39341
H -0.64345 5.81472 0.13938
H 0.21261 5.08420 -1.27985
H 3.49851 2.26309 -2.33033
H 2.51170 3.75449 -1.99046
H 4.11498 3.86883 -2.81484
