26
CUP08008.xyz 0.0000000
C 1.6640 -0.4310 0.3400
S 1.5070 -2.2320 0.4770
C -0.3380 -2.4920 0.2770
C -0.8340 -1.7880 -0.9880
H -0.2840 -2.1200 -1.8760
H -0.7510 -0.6990 -0.9140
H -1.8910 -1.9960 -1.1820
C -1.0320 -1.9820 1.5430
H -2.1210 -2.0620 1.4720
H -0.8240 -0.9260 1.7380
H -0.7310 -2.5590 2.4260
C -0.5070 -4.0130 0.1350
H 0.4180 -4.6150 0.0950
N -1.6010 -4.7150 0.0380
O -2.7550 -3.9080 0.0740
C -3.9120 -4.6570 -0.0250
N -3.6870 -6.0050 -0.1340
C -4.7150 -7.0030 -0.2500
H -5.7100 -6.5540 -0.2400
H -4.6140 -7.6980 0.5880
H -4.5620 -7.5440 -1.1870
H -2.6980 -6.2440 -0.1240
O -5.0190 -4.1300 -0.0130
H 1.4430 -0.0980 -0.6760
H 2.7000 -0.1580 0.5600
H 1.0230 0.0870 1.0560
