32
CUP08009.xyz 0.0000000
C 0.8760 1.0070 0.3610
N 2.0140 1.7690 0.4550
H 1.8700 2.7670 0.4990
C 3.3260 1.1740 0.4880
H 3.5030 0.5890 -0.4220
H 3.4180 0.5010 1.3490
C 4.3840 2.2600 0.5930
H 4.2490 2.8540 1.5030
H 4.3330 2.9420 -0.2630
H 5.3850 1.8170 0.6190
N -0.2720 1.6740 0.3380
C -1.3660 0.9210 0.2450
S -2.9160 1.8010 0.2120
C -4.0860 0.4220 0.1270
H -3.9900 -0.2230 1.0040
H -3.9300 -0.1650 -0.7830
H -5.1040 0.8210 0.1050
N -1.3780 -0.4090 0.1760
C -0.1850 -0.9900 0.2070
N -0.1850 -2.3610 0.1330
H -1.0960 -2.7880 0.0540
C 1.0250 -3.1570 0.1470
H 1.7760 -2.7140 0.8130
C 1.5960 -3.2620 -1.2650
H 0.8700 -3.7030 -1.9570
H 2.4970 -3.8840 -1.2750
H 1.8670 -2.2760 -1.6570
C 0.6930 -4.5460 0.6920
H -0.0500 -5.0540 0.0680
H 0.2830 -4.4770 1.7050
H 1.5900 -5.1730 0.7320
N 0.9610 -0.3200 0.2990
